NOVO24/1726538/Reguladores.dss
! REGULADORES — gerados de UNREMT
! vreg = 122 V e band = 2 V — AJUSTES TIPICOS, nao de campo.
! kVA = 5000 adotado; a BDGD nao traz a potencia do regulador.
! O ptratio segue a tensao de cada alimentador (TP para 120 V).
New Transformer.REG_347489529_1 phases=1 windings=2 XHL=0.04
~ buses=[segm_347489578.1 segm_347489517.1] conns=[wye wye]
~ kVs=[7.9674 7.9674] kVAs=[5000 5000] %Rs=[0.01 0.01]
~ maxtap=1.10 mintap=0.90 numtaps=32
New RegControl.RC_REG_347489529_1 transformer=REG_347489529_1 winding=2 vreg=122 band=2 ptratio=66.4 delay=15 maxtapchange=1
New Transformer.REG_347489529_2 phases=1 windings=2 XHL=0.04
~ buses=[segm_347489578.2 segm_347489517.2] conns=[wye wye]
~ kVs=[7.9674 7.9674] kVAs=[5000 5000] %Rs=[0.01 0.01]
~ maxtap=1.10 mintap=0.90 numtaps=32
New RegControl.RC_REG_347489529_2 transformer=REG_347489529_2 winding=2 vreg=122 band=2 ptratio=66.4 delay=15 maxtapchange=1
New Transformer.REG_347489529_3 phases=1 windings=2 XHL=0.04
~ buses=[segm_347489578.3 segm_347489517.3] conns=[wye wye]
~ kVs=[7.9674 7.9674] kVAs=[5000 5000] %Rs=[0.01 0.01]
~ maxtap=1.10 mintap=0.90 numtaps=32
New RegControl.RC_REG_347489529_3 transformer=REG_347489529_3 winding=2 vreg=122 band=2 ptratio=66.4 delay=15 maxtapchange=1
New Transformer.REG_347489677_1 phases=1 windings=2 XHL=0.04
~ buses=[segm_347489726.1 segm_347489665.1] conns=[wye wye]
~ kVs=[7.9674 7.9674] kVAs=[5000 5000] %Rs=[0.01 0.01]
~ maxtap=1.10 mintap=0.90 numtaps=32
New RegControl.RC_REG_347489677_1 transformer=REG_347489677_1 winding=2 vreg=122 band=2 ptratio=66.4 delay=15 maxtapchange=1
New Transformer.REG_347489677_2 phases=1 windings=2 XHL=0.04
~ buses=[segm_347489726.2 segm_347489665.2] conns=[wye wye]
~ kVs=[7.9674 7.9674] kVAs=[5000 5000] %Rs=[0.01 0.01]
~ maxtap=1.10 mintap=0.90 numtaps=32
New RegControl.RC_REG_347489677_2 transformer=REG_347489677_2 winding=2 vreg=122 band=2 ptratio=66.4 delay=15 maxtapchange=1
New Transformer.REG_347489677_3 phases=1 windings=2 XHL=0.04
~ buses=[segm_347489726.3 segm_347489665.3] conns=[wye wye]
~ kVs=[7.9674 7.9674] kVAs=[5000 5000] %Rs=[0.01 0.01]
~ maxtap=1.10 mintap=0.90 numtaps=32
New RegControl.RC_REG_347489677_3 transformer=REG_347489677_3 winding=2 vreg=122 band=2 ptratio=66.4 delay=15 maxtapchange=1
New Transformer.REG_368031957_1 phases=1 windings=2 XHL=0.04
~ buses=[segm_368032006.1 segm_368031945.1] conns=[wye wye]
~ kVs=[7.9674 7.9674] kVAs=[5000 5000] %Rs=[0.01 0.01]
~ maxtap=1.10 mintap=0.90 numtaps=32
New RegControl.RC_REG_368031957_1 transformer=REG_368031957_1 winding=2 vreg=122 band=2 ptratio=66.4 delay=15 maxtapchange=1
New Transformer.REG_368031957_2 phases=1 windings=2 XHL=0.04
~ buses=[segm_368032006.2 segm_368031945.2] conns=[wye wye]
~ kVs=[7.9674 7.9674] kVAs=[5000 5000] %Rs=[0.01 0.01]
~ maxtap=1.10 mintap=0.90 numtaps=32
New RegControl.RC_REG_368031957_2 transformer=REG_368031957_2 winding=2 vreg=122 band=2 ptratio=66.4 delay=15 maxtapchange=1
New Transformer.REG_368031957_3 phases=1 windings=2 XHL=0.04
~ buses=[segm_368032006.3 segm_368031945.3] conns=[wye wye]
~ kVs=[7.9674 7.9674] kVAs=[5000 5000] %Rs=[0.01 0.01]
~ maxtap=1.10 mintap=0.90 numtaps=32
New RegControl.RC_REG_368031957_3 transformer=REG_368031957_3 winding=2 vreg=122 band=2 ptratio=66.4 delay=15 maxtapchange=1
New Transformer.REG_368032031_1 phases=1 windings=2 XHL=0.04
~ buses=[segm_368032080.1 segm_368032019.1] conns=[wye wye]
~ kVs=[7.9674 7.9674] kVAs=[5000 5000] %Rs=[0.01 0.01]
~ maxtap=1.10 mintap=0.90 numtaps=32
New RegControl.RC_REG_368032031_1 transformer=REG_368032031_1 winding=2 vreg=122 band=2 ptratio=66.4 delay=15 maxtapchange=1
New Transformer.REG_368032031_2 phases=1 windings=2 XHL=0.04
~ buses=[segm_368032080.2 segm_368032019.2] conns=[wye wye]
~ kVs=[7.9674 7.9674] kVAs=[5000 5000] %Rs=[0.01 0.01]
~ maxtap=1.10 mintap=0.90 numtaps=32
New RegControl.RC_REG_368032031_2 transformer=REG_368032031_2 winding=2 vreg=122 band=2 ptratio=66.4 delay=15 maxtapchange=1
New Transformer.REG_368032031_3 phases=1 windings=2 XHL=0.04
~ buses=[segm_368032080.3 segm_368032019.3] conns=[wye wye]
~ kVs=[7.9674 7.9674] kVAs=[5000 5000] %Rs=[0.01 0.01]
~ maxtap=1.10 mintap=0.90 numtaps=32
New RegControl.RC_REG_368032031_3 transformer=REG_368032031_3 winding=2 vreg=122 band=2 ptratio=66.4 delay=15 maxtapchange=1
New Transformer.REG_368032105_1 phases=1 windings=2 XHL=0.04
~ buses=[segm_368032154.1 segm_368032093.1] conns=[wye wye]
~ kVs=[7.9674 7.9674] kVAs=[5000 5000] %Rs=[0.01 0.01]
~ maxtap=1.10 mintap=0.90 numtaps=32
New RegControl.RC_REG_368032105_1 transformer=REG_368032105_1 winding=2 vreg=122 band=2 ptratio=66.4 delay=15 maxtapchange=1
New Transformer.REG_368032105_2 phases=1 windings=2 XHL=0.04
~ buses=[segm_368032154.2 segm_368032093.2] conns=[wye wye]
~ kVs=[7.9674 7.9674] kVAs=[5000 5000] %Rs=[0.01 0.01]
~ maxtap=1.10 mintap=0.90 numtaps=32
New RegControl.RC_REG_368032105_2 transformer=REG_368032105_2 winding=2 vreg=122 band=2 ptratio=66.4 delay=15 maxtapchange=1
New Transformer.REG_368032105_3 phases=1 windings=2 XHL=0.04
~ buses=[segm_368032154.3 segm_368032093.3] conns=[wye wye]
~ kVs=[7.9674 7.9674] kVAs=[5000 5000] %Rs=[0.01 0.01]
~ maxtap=1.10 mintap=0.90 numtaps=32
New RegControl.RC_REG_368032105_3 transformer=REG_368032105_3 winding=2 vreg=122 band=2 ptratio=66.4 delay=15 maxtapchange=1
New Transformer.REG_368032475_1 phases=1 windings=2 XHL=0.04
~ buses=[segm_368032524.1 segm_368032463.1] conns=[wye wye]
~ kVs=[7.9674 7.9674] kVAs=[5000 5000] %Rs=[0.01 0.01]
~ maxtap=1.10 mintap=0.90 numtaps=32
New RegControl.RC_REG_368032475_1 transformer=REG_368032475_1 winding=2 vreg=122 band=2 ptratio=66.4 delay=15 maxtapchange=1
New Transformer.REG_368032475_2 phases=1 windings=2 XHL=0.04
~ buses=[segm_368032524.2 segm_368032463.2] conns=[wye wye]
~ kVs=[7.9674 7.9674] kVAs=[5000 5000] %Rs=[0.01 0.01]
~ maxtap=1.10 mintap=0.90 numtaps=32
New RegControl.RC_REG_368032475_2 transformer=REG_368032475_2 winding=2 vreg=122 band=2 ptratio=66.4 delay=15 maxtapchange=1
New Transformer.REG_368032475_3 phases=1 windings=2 XHL=0.04
~ buses=[segm_368032524.3 segm_368032463.3] conns=[wye wye]
~ kVs=[7.9674 7.9674] kVAs=[5000 5000] %Rs=[0.01 0.01]
~ maxtap=1.10 mintap=0.90 numtaps=32
New RegControl.RC_REG_368032475_3 transformer=REG_368032475_3 winding=2 vreg=122 band=2 ptratio=66.4 delay=15 maxtapchange=1
New Transformer.REG_2781749318_1 phases=1 windings=2 XHL=0.04
~ buses=[segm_2781749376.1 segm_2781749325.1] conns=[wye wye]
~ kVs=[7.9674 7.9674] kVAs=[5000 5000] %Rs=[0.01 0.01]
~ maxtap=1.10 mintap=0.90 numtaps=32
New RegControl.RC_REG_2781749318_1 transformer=REG_2781749318_1 winding=2 vreg=122 band=2 ptratio=66.4 delay=15 maxtapchange=1
New Transformer.REG_2781749318_2 phases=1 windings=2 XHL=0.04
~ buses=[segm_2781749376.2 segm_2781749325.2] conns=[wye wye]
~ kVs=[7.9674 7.9674] kVAs=[5000 5000] %Rs=[0.01 0.01]
~ maxtap=1.10 mintap=0.90 numtaps=32
New RegControl.RC_REG_2781749318_2 transformer=REG_2781749318_2 winding=2 vreg=122 band=2 ptratio=66.4 delay=15 maxtapchange=1
New Transformer.REG_2781749318_3 phases=1 windings=2 XHL=0.04
~ buses=[segm_2781749376.3 segm_2781749325.3] conns=[wye wye]
~ kVs=[7.9674 7.9674] kVAs=[5000 5000] %Rs=[0.01 0.01]
~ maxtap=1.10 mintap=0.90 numtaps=32
New RegControl.RC_REG_2781749318_3 transformer=REG_2781749318_3 winding=2 vreg=122 band=2 ptratio=66.4 delay=15 maxtapchange=1
